26
 Data = 2, E = -572.6315515716764
    N     0.3077495918     3.0384087479    -0.1900437641
    N     1.9931297976     1.6445377397    -0.3160442758
    C     0.4923203583     1.6287635837    -0.3682224273
    H    -0.2853248561     0.7139902534    -1.2266467917
    C     1.3095695776     3.6766782884    -0.9183289629
    H     1.3009466693     4.7887371124    -0.9766165831
    C     2.4057533009     2.7864960400    -0.9216221494
    H     3.3356104404     3.1459900857    -1.1589303140
    C    -1.1185233209     3.4699039316    -0.3986329376
    H    -1.5583526489     3.0297143973    -1.3829615347
    H    -1.3305991912     4.5432430235    -0.4009472733
    H    -1.6927985457     3.0052386126     0.4520583926
    C     2.5379599873     0.3470684283    -0.6048616029
    H     3.4871825967     0.3662421467    -1.1826505247
    H     1.8202311863    -0.1343831308    -1.2804085677
    C     3.0262568233    -0.3779331963     0.6186283684
    H     2.1890989772    -0.7741835195     1.2249573854
    H     3.5850414165     0.3145081469     1.2086455687
    H     3.7991340942    -1.2573651341     0.3408883619
    O    -2.6248113496     0.9158984760    -1.8732895353
    O    -0.8113631334    -0.3091244701    -1.9868769309
    C    -2.1722798076    -0.2212733808    -1.9907632609
    C    -3.0593096183    -1.3832234670    -2.0634917161
    H    -2.6577009045    -2.2190272453    -2.6894277238
    H    -3.4085081757    -1.5814394997    -1.0770870158
    H    -4.0395110635    -1.0596124987    -2.6001577486
